  
       XFOIL         Version 6.99
  
 Calculated polar for: FX S 02-196 AIRFOIL                             
  
 1 1 Reynolds number fixed          Mach number fixed         
  
 xtrf =   1.000 (top)        1.000 (bottom)  
 Mach =   0.000     Re =    19.900 e 6     Ncrit =   9.000
  
   alpha    CL        CD       CDp       CM     Top_Xtr  Bot_Xtr
  ------ -------- --------- --------- -------- -------- --------
  10.000   1.4989   0.01363   0.00807  -0.0956   0.0200   0.2375
  10.125   1.5061   0.01385   0.00828  -0.0948   0.0197   0.2384
  10.250   1.5127   0.01410   0.00853  -0.0939   0.0194   0.2413
  10.375   1.5202   0.01433   0.00877  -0.0932   0.0190   0.2487
  10.500   1.5258   0.01463   0.00907  -0.0923   0.0180   0.2538
  10.625   1.5324   0.01490   0.00936  -0.0915   0.0176   0.2656
  10.750   1.5402   0.01513   0.00964  -0.0910   0.0173   0.3028
  10.875   1.5435   0.01556   0.01006  -0.0898   0.0158   0.3025
  11.000   1.5525   0.01577   0.01030  -0.0894   0.0173   0.3085
  11.125   1.5549   0.01628   0.01079  -0.0882   0.0144   0.3119
  11.250   1.5583   0.01677   0.01127  -0.0871   0.0134   0.3097
  11.375   1.5585   0.01742   0.01193  -0.0857   0.0110   0.3189
  11.500   1.5631   0.01789   0.01241  -0.0849   0.0107   0.3206
  11.625   1.5668   0.01842   0.01294  -0.0840   0.0097   0.3242
  11.750   1.5715   0.01891   0.01344  -0.0832   0.0097   0.3281
  11.875   1.5781   0.01928   0.01389  -0.0828   0.0096   0.3743
  12.000   1.5836   0.01973   0.01437  -0.0821   0.0090   0.3913
  12.125   1.5882   0.02025   0.01495  -0.0815   0.0090   0.4236
  12.250   1.5933   0.02077   0.01542  -0.0808   0.0090   0.3878
  12.375   1.6003   0.02115   0.01587  -0.0804   0.0090   0.4233
  12.500   1.6003   0.02200   0.01673  -0.0793   0.0081   0.4248
  12.625   1.6018   0.02276   0.01749  -0.0784   0.0067   0.4282
  12.750   1.6065   0.02335   0.01809  -0.0778   0.0067   0.4252
  13.000   1.5887   0.02640   0.02116  -0.0745   0.0016   0.4264
  13.250   1.5971   0.02774   0.02252  -0.0735   0.0015   0.4267
  13.375   1.6001   0.02854   0.02333  -0.0729   0.0015   0.4313
  13.500   1.6049   0.02918   0.02400  -0.0725   0.0014   0.4429
  13.625   1.6091   0.02988   0.02470  -0.0721   0.0013   0.4429
  13.750   1.6098   0.03091   0.02575  -0.0715   0.0011   0.4452
  13.875   1.6142   0.03162   0.02648  -0.0711   0.0011   0.4478
  14.000   1.6199   0.03224   0.02710  -0.0708   0.0012   0.4519
  14.125   1.6242   0.03297   0.02783  -0.0704   0.0011   0.4478
  14.250   1.6251   0.03404   0.02894  -0.0699   0.0010   0.4587
  14.375   1.6295   0.03479   0.02970  -0.0696   0.0009   0.4623
  14.500   1.6346   0.03548   0.03041  -0.0693   0.0009   0.4644
  14.625   1.6394   0.03619   0.03111  -0.0690   0.0009   0.4608
  14.750   1.6406   0.03729   0.03226  -0.0687   0.0009   0.4810
  14.875   1.6446   0.03811   0.03309  -0.0684   0.0009   0.4813
  15.000   1.6493   0.03886   0.03386  -0.0681   0.0009   0.4825
  15.125   1.6542   0.03960   0.03461  -0.0679   0.0009   0.4875
  15.250   1.6555   0.04073   0.03575  -0.0676   0.0009   0.4857
  15.375   1.6587   0.04168   0.03671  -0.0674   0.0009   0.4892
  15.500   1.6632   0.04249   0.03753  -0.0672   0.0009   0.4936
  15.625   1.6680   0.04326   0.03831  -0.0670   0.0009   0.4909
  15.750   1.6726   0.04405   0.03911  -0.0668   0.0009   0.4951
  15.875   1.6733   0.04529   0.04038  -0.0666   0.0009   0.4974
  16.000   1.6762   0.04631   0.04141  -0.0664   0.0009   0.4999
  16.125   1.6804   0.04717   0.04228  -0.0663   0.0009   0.5006
  16.250   1.6851   0.04799   0.04310  -0.0662   0.0009   0.4996
  16.375   1.6896   0.04883   0.04395  -0.0660   0.0009   0.5011
  16.500   1.6941   0.04968   0.04481  -0.0659   0.0009   0.5010
  16.625   1.6928   0.05121   0.04636  -0.0658   0.0009   0.5012
  16.750   1.6969   0.05213   0.04729  -0.0657   0.0009   0.5019
  16.875   1.7004   0.05309   0.04826  -0.0656   0.0008   0.5024
  17.000   1.7046   0.05399   0.04917  -0.0655   0.0008   0.5022
  17.125   1.7086   0.05491   0.05009  -0.0655   0.0008   0.5034
  17.250   1.7084   0.05638   0.05158  -0.0654   0.0008   0.5037
  17.375   1.7104   0.05757   0.05279  -0.0654   0.0007   0.5073
  17.500   1.7143   0.05855   0.05378  -0.0654   0.0007   0.5112
  17.625   1.7167   0.05966   0.05491  -0.0654   0.0006   0.5122
  17.750   1.7216   0.06053   0.05578  -0.0654   0.0006   0.5123
  17.875   1.7243   0.06163   0.05691  -0.0654   0.0005   0.5206
  18.000   1.7214   0.06346   0.05877  -0.0654   0.0004   0.5224
  18.125   1.7234   0.06469   0.06001  -0.0655   0.0004   0.5229
  18.250   1.7271   0.06574   0.06111  -0.0656   0.0004   0.5422
  18.375   1.7323   0.06660   0.06199  -0.0657   0.0004   0.5509
  18.500   1.7357   0.06767   0.06308  -0.0658   0.0004   0.5553
  18.625   1.7402   0.06861   0.06403  -0.0658   0.0004   0.5565
  18.875   1.7418   0.07148   0.06693  -0.0661   0.0004   0.5578
  19.625   1.7609   0.07825   0.07377  -0.0670   0.0004   0.5647
  19.750   1.7563   0.08051   0.07606  -0.0674   0.0004   0.5671
  19.875   1.7592   0.08171   0.07729  -0.0677   0.0004   0.5725
  20.000   1.7625   0.08286   0.07845  -0.0679   0.0004   0.5717
  20.125   1.7665   0.08391   0.07952  -0.0681   0.0004   0.5775
  20.250   1.7700   0.08502   0.08063  -0.0683   0.0004   0.5772
  20.375   1.7740   0.08611   0.08177  -0.0686   0.0004   0.6004
  20.500   1.7768   0.08731   0.08297  -0.0689   0.0004   0.5971
  20.625   1.7714   0.08973   0.08542  -0.0694   0.0004   0.5947
  20.750   1.7739   0.09104   0.08678  -0.0698   0.0004   0.6190
  21.250   1.7876   0.09564   0.09144  -0.0709   0.0004   0.6340
  21.375   1.7907   0.09684   0.09266  -0.0713   0.0004   0.6403
  21.500   1.7918   0.09835   0.09420  -0.0717   0.0004   0.6474
  21.625   1.7865   0.10083   0.09672  -0.0724   0.0004   0.6519
  21.750   1.7888   0.10217   0.09807  -0.0728   0.0004   0.6580
  21.875   1.7919   0.10337   0.09930  -0.0732   0.0004   0.6671
  22.000   1.7949   0.10460   0.10055  -0.0736   0.0004   0.6772
  22.125   1.7978   0.10582   0.10180  -0.0740   0.0004   0.6794
  22.250   1.8004   0.10709   0.10308  -0.0744   0.0004   0.6843
  22.375   1.7967   0.10936   0.10539  -0.0752   0.0004   0.6910
  22.500   1.7954   0.11125   0.10731  -0.0758   0.0003   0.6958
  22.625   1.7976   0.11261   0.10868  -0.0763   0.0003   0.7000
  22.750   1.8002   0.11389   0.10998  -0.0768   0.0003   0.7053
  22.875   1.8028   0.11517   0.11128  -0.0772   0.0003   0.7101
  23.000   1.8053   0.11648   0.11262  -0.0778   0.0003   0.7209
  23.125   1.8078   0.11781   0.11398  -0.0783   0.0003   0.7376
  23.250   1.8003   0.12068   0.11690  -0.0794   0.0003   0.7405
  23.375   1.8018   0.12211   0.11835  -0.0800   0.0003   0.7475
  23.500   1.8044   0.12343   0.11971  -0.0806   0.0003   0.7639
  23.625   1.8077   0.12475   0.12112  -0.0814   0.0003   0.8181
  23.750   1.8099   0.12583   0.12254  -0.0817   0.0003   1.0000
  23.875   1.8118   0.12718   0.12390  -0.0823   0.0003   1.0000
  24.000   1.8059   0.12982   0.12657  -0.0834   0.0003   1.0000
  24.125   1.8054   0.13157   0.12834  -0.0842   0.0003   1.0000
  24.250   1.8071   0.13296   0.12973  -0.0848   0.0003   1.0000
  24.375   1.8091   0.13429   0.13108  -0.0855   0.0003   1.0000
  24.500   1.8111   0.13562   0.13242  -0.0861   0.0003   1.0000
  24.625   1.8127   0.13700   0.13381  -0.0868   0.0003   1.0000
  24.750   1.8068   0.13962   0.13646  -0.0880   0.0003   1.0000
  24.875   1.8062   0.14136   0.13823  -0.0889   0.0003   1.0000
  25.000   1.8074   0.14281   0.13968  -0.0896   0.0003   1.0000
  25.125   1.8087   0.14421   0.14110  -0.0903   0.0003   1.0000
  25.250   1.8098   0.14564   0.14254  -0.0911   0.0003   1.0000
  25.375   1.8027   0.14844   0.14538  -0.0926   0.0003   1.0000
  25.500   1.8029   0.15001   0.14696  -0.0934   0.0003   1.0000
  25.625   1.8039   0.15144   0.14841  -0.0942   0.0003   1.0000
  25.750   1.8051   0.15285   0.14983  -0.0950   0.0003   1.0000
  25.875   1.8058   0.15433   0.15132  -0.0959   0.0003   1.0000
  26.000   1.7978   0.15728   0.15431  -0.0975   0.0003   1.0000
  26.125   1.7985   0.15874   0.15578  -0.0984   0.0003   1.0000
  26.250   1.7995   0.16016   0.15721  -0.0993   0.0003   1.0000
  26.375   1.8005   0.16156   0.15862  -0.1001   0.0003   1.0000
  26.500   1.8013   0.16299   0.16006  -0.1010   0.0003   1.0000
  26.625   1.7941   0.16579   0.16291  -0.1027   0.0003   1.0000
  26.750   1.7931   0.16750   0.16463  -0.1038   0.0003   1.0000
  26.875   1.7927   0.16911   0.16626  -0.1049   0.0002   1.0000
  27.000   1.7924   0.17071   0.16787  -0.1059   0.0002   1.0000
  27.125   1.7860   0.17336   0.17055  -0.1076   0.0002   1.0000
  27.250   1.7838   0.17526   0.17247  -0.1089   0.0002   1.0000
  27.375   1.7839   0.17678   0.17400  -0.1099   0.0002   1.0000
  27.500   1.7763   0.17960   0.17686  -0.1118   0.0002   1.0000
  27.625   1.7747   0.18138   0.17866  -0.1131   0.0002   1.0000
  27.750   1.7744   0.18294   0.18024  -0.1142   0.0002   1.0000
  27.875   1.7733   0.18460   0.18191  -0.1154   0.0001   1.0000
  28.000   1.7743   0.18594   0.18326  -0.1165   0.0001   1.0000
  28.125   1.7646   0.18915   0.18651  -0.1187   0.0001   1.0000
  28.250   1.7639   0.19076   0.18813  -0.1199   0.0001   1.0000
  28.375   1.7637   0.19227   0.18965  -0.1211   0.0001   1.0000
  28.500   1.7636   0.19376   0.19116  -0.1223   0.0001   1.0000
  28.625   1.7590   0.19607   0.19350  -0.1240   0.0001   1.0000
  28.750   1.7539   0.19845   0.19591  -0.1258   0.0001   1.0000
  28.875   1.7528   0.20011   0.19758  -0.1271   0.0001   1.0000
  29.000   1.7459   0.20283   0.20034  -0.1292   0.0001   1.0000
  29.125   1.7439   0.20465   0.20218  -0.1306   0.0001   1.0000
  29.250   1.7427   0.20632   0.20386  -0.1320   0.0000   1.0000
  29.375   1.7347   0.20925   0.20683  -0.1343   0.0001   1.0000
  29.500   1.7326   0.21107   0.20868  -0.1358   0.0000   1.0000
  29.625   1.7323   0.21256   0.21017  -0.1371   0.0000   1.0000
  29.750   1.7320   0.21405   0.21168  -0.1384   0.0000   1.0000
  29.875   1.7312   0.21561   0.21325  -0.1397   0.0000   1.0000
  30.000   1.7222   0.21872   0.21641  -0.1422   0.0000   1.0000
