  
       XFOIL         Version 6.99
  
 Calculated polar for: FX S 02-196 AIRFOIL                             
  
 1 1 Reynolds number fixed          Mach number fixed         
  
 xtrf =   1.000 (top)        1.000 (bottom)  
 Mach =   0.000     Re =    19.900 e 6     Ncrit =   9.000
  
   alpha    CL        CD       CDp       CM     Top_Xtr  Bot_Xtr
  ------ -------- --------- --------- -------- -------- --------
  10.000   1.4989   0.01363   0.00807  -0.0956   0.0200   0.2375
  10.250   1.5127   0.01410   0.00853  -0.0939   0.0194   0.2413
  10.500   1.5258   0.01463   0.00907  -0.0923   0.0180   0.2538
  10.750   1.5402   0.01513   0.00964  -0.0910   0.0173   0.3028
  11.000   1.5525   0.01577   0.01030  -0.0894   0.0173   0.3085
  11.250   1.5583   0.01677   0.01127  -0.0871   0.0134   0.3097
  11.500   1.5631   0.01789   0.01241  -0.0849   0.0107   0.3206
  11.750   1.5715   0.01891   0.01344  -0.0832   0.0097   0.3281
  12.000   1.5836   0.01973   0.01437  -0.0821   0.0090   0.3913
  12.250   1.5933   0.02077   0.01542  -0.0808   0.0090   0.3878
  12.500   1.6003   0.02200   0.01673  -0.0793   0.0081   0.4248
  12.750   1.6065   0.02335   0.01809  -0.0778   0.0067   0.4252
  13.000   1.5887   0.02640   0.02116  -0.0745   0.0016   0.4264
  13.250   1.5971   0.02774   0.02252  -0.0735   0.0015   0.4267
  13.500   1.6049   0.02918   0.02400  -0.0725   0.0014   0.4429
  13.750   1.6098   0.03090   0.02575  -0.0715   0.0011   0.4452
  14.000   1.6199   0.03224   0.02710  -0.0708   0.0012   0.4519
  14.250   1.6251   0.03404   0.02894  -0.0699   0.0010   0.4587
  14.500   1.6346   0.03548   0.03041  -0.0693   0.0009   0.4644
  14.750   1.6406   0.03729   0.03226  -0.0687   0.0009   0.4810
  15.000   1.6493   0.03886   0.03386  -0.0681   0.0009   0.4825
  15.250   1.6555   0.04073   0.03575  -0.0676   0.0009   0.4857
  15.500   1.6632   0.04249   0.03753  -0.0672   0.0009   0.4936
  15.750   1.6726   0.04405   0.03911  -0.0668   0.0009   0.4951
  16.000   1.6762   0.04631   0.04141  -0.0664   0.0009   0.4999
  16.250   1.6851   0.04799   0.04310  -0.0662   0.0009   0.4996
  16.500   1.6941   0.04968   0.04481  -0.0659   0.0009   0.5010
  16.750   1.6969   0.05213   0.04729  -0.0657   0.0009   0.5018
  17.000   1.7046   0.05399   0.04917  -0.0655   0.0008   0.5022
  17.250   1.7084   0.05638   0.05158  -0.0654   0.0008   0.5037
  17.500   1.7143   0.05855   0.05378  -0.0654   0.0007   0.5112
  17.750   1.7216   0.06053   0.05578  -0.0654   0.0006   0.5123
  18.000   1.7214   0.06346   0.05877  -0.0654   0.0004   0.5224
  18.250   1.7271   0.06574   0.06111  -0.0656   0.0004   0.5422
  19.250   1.7502   0.07500   0.07048  -0.0666   0.0004   0.5590
  19.500   1.7576   0.07712   0.07263  -0.0669   0.0004   0.5621
  19.750   1.7563   0.08051   0.07606  -0.0674   0.0004   0.5671
  20.000   1.7625   0.08286   0.07845  -0.0679   0.0004   0.5717
  20.250   1.7700   0.08502   0.08063  -0.0683   0.0004   0.5772
  20.500   1.7768   0.08731   0.08297  -0.0689   0.0004   0.5971
  20.750   1.7739   0.09104   0.08678  -0.0698   0.0004   0.6190
  21.000   1.7805   0.09337   0.08914  -0.0703   0.0004   0.6276
  21.250   1.7876   0.09564   0.09144  -0.0709   0.0004   0.6341
  21.500   1.7918   0.09835   0.09419  -0.0717   0.0004   0.6474
  21.750   1.7888   0.10217   0.09807  -0.0728   0.0004   0.6580
  22.000   1.7949   0.10460   0.10055  -0.0736   0.0004   0.6772
  22.250   1.8004   0.10709   0.10308  -0.0744   0.0004   0.6843
  22.500   1.7954   0.11125   0.10731  -0.0758   0.0003   0.6958
  22.750   1.8002   0.11389   0.10998  -0.0768   0.0003   0.7053
  23.000   1.8053   0.11648   0.11262  -0.0778   0.0003   0.7209
  23.250   1.8003   0.12068   0.11690  -0.0794   0.0003   0.7405
  23.500   1.8044   0.12342   0.11971  -0.0806   0.0003   0.7639
  23.750   1.8099   0.12583   0.12254  -0.0817   0.0003   1.0000
  24.000   1.8059   0.12982   0.12657  -0.0834   0.0003   1.0000
  24.250   1.8071   0.13296   0.12973  -0.0848   0.0003   1.0000
  24.500   1.8111   0.13562   0.13242  -0.0861   0.0003   1.0000
  24.750   1.8068   0.13962   0.13646  -0.0880   0.0003   1.0000
  25.000   1.8074   0.14281   0.13968  -0.0896   0.0003   1.0000
  25.250   1.8098   0.14564   0.14254  -0.0911   0.0003   1.0000
  25.500   1.8029   0.15001   0.14696  -0.0934   0.0003   1.0000
  25.750   1.8051   0.15285   0.14983  -0.0950   0.0003   1.0000
  26.000   1.7978   0.15728   0.15431  -0.0975   0.0003   1.0000
  26.250   1.7995   0.16015   0.15721  -0.0993   0.0003   1.0000
  26.500   1.8013   0.16299   0.16006  -0.1010   0.0003   1.0000
  26.750   1.7931   0.16751   0.16464  -0.1038   0.0003   1.0000
  27.000   1.7924   0.17071   0.16787  -0.1059   0.0002   1.0000
  27.250   1.7838   0.17526   0.17247  -0.1089   0.0002   1.0000
  27.500   1.7763   0.17960   0.17686  -0.1118   0.0002   1.0000
  27.750   1.7744   0.18294   0.18024  -0.1142   0.0002   1.0000
  28.000   1.7743   0.18594   0.18326  -0.1165   0.0001   1.0000
  28.250   1.7639   0.19076   0.18813  -0.1199   0.0001   1.0000
  28.500   1.7636   0.19376   0.19116  -0.1223   0.0001   1.0000
  28.750   1.7539   0.19845   0.19590  -0.1258   0.0001   1.0000
  29.000   1.7459   0.20283   0.20034  -0.1292   0.0001   1.0000
  29.250   1.7427   0.20632   0.20386  -0.1320   0.0000   1.0000
  29.500   1.7326   0.21107   0.20868  -0.1358   0.0000   1.0000
  29.750   1.7320   0.21405   0.21168  -0.1384   0.0000   1.0000
  30.000   1.7222   0.21873   0.21642  -0.1422   0.0000   1.0000
