  
       XFOIL         Version 6.99
  
 Calculated polar for: NACA 24012                                      
  
 1 1 Reynolds number fixed          Mach number fixed         
  
 xtrf =   1.000 (top)        1.000 (bottom)  
 Mach =   0.000     Re =    19.900 e 6     Ncrit =   9.000
  
   alpha    CL        CD       CDp       CM     Top_Xtr  Bot_Xtr
  ------ -------- --------- --------- -------- -------- --------
  10.000   1.2726   0.00830   0.00427  -0.0181   0.0224   0.9948
  10.125   1.2872   0.00840   0.00436  -0.0184   0.0211   0.9957
  10.250   1.3018   0.00850   0.00445  -0.0186   0.0207   0.9965
  10.375   1.3161   0.00862   0.00456  -0.0189   0.0198   0.9973
  10.500   1.3303   0.00875   0.00468  -0.0191   0.0185   0.9981
  10.625   1.3445   0.00886   0.00478  -0.0193   0.0175   0.9988
  10.750   1.3587   0.00897   0.00488  -0.0195   0.0171   0.9993
  10.875   1.3728   0.00909   0.00499  -0.0197   0.0165   0.9997
  11.000   1.3862   0.00924   0.00512  -0.0197   0.0153   1.0000
  11.125   1.3987   0.00935   0.00523  -0.0195   0.0145   1.0000
  11.250   1.4114   0.00945   0.00532  -0.0194   0.0143   1.0000
  11.375   1.4241   0.00956   0.00542  -0.0193   0.0140   1.0000
  11.500   1.4367   0.00968   0.00554  -0.0191   0.0135   1.0000
  11.625   1.4491   0.00982   0.00567  -0.0190   0.0130   1.0000
  11.750   1.4616   0.00995   0.00579  -0.0188   0.0123   1.0000
  11.875   1.4743   0.01006   0.00590  -0.0187   0.0118   1.0000
  12.000   1.4870   0.01017   0.00601  -0.0186   0.0117   1.0000
  12.125   1.4997   0.01029   0.00612  -0.0185   0.0115   1.0000
  12.250   1.5122   0.01041   0.00624  -0.0184   0.0112   1.0000
  12.375   1.5245   0.01056   0.00637  -0.0183   0.0108   1.0000
  12.500   1.5367   0.01071   0.00652  -0.0181   0.0103   1.0000
  12.625   1.5489   0.01085   0.00666  -0.0179   0.0097   1.0000
  12.750   1.5613   0.01098   0.00678  -0.0178   0.0094   1.0000
  12.875   1.5738   0.01110   0.00690  -0.0177   0.0093   1.0000
  13.000   1.5861   0.01123   0.00703  -0.0175   0.0092   1.0000
  13.125   1.5983   0.01137   0.00716  -0.0174   0.0090   1.0000
  13.250   1.6103   0.01152   0.00730  -0.0172   0.0088   1.0000
  13.375   1.6221   0.01168   0.00746  -0.0170   0.0085   1.0000
  13.500   1.6339   0.01184   0.00762  -0.0168   0.0082   1.0000
  13.625   1.6457   0.01200   0.00777  -0.0166   0.0079   1.0000
  13.750   1.6574   0.01215   0.00792  -0.0164   0.0076   1.0000
  13.875   1.6693   0.01230   0.00806  -0.0162   0.0074   1.0000
  14.000   1.6811   0.01244   0.00821  -0.0160   0.0073   1.0000
  14.125   1.6928   0.01258   0.00835  -0.0158   0.0073   1.0000
  14.250   1.7044   0.01274   0.00850  -0.0156   0.0072   1.0000
  14.375   1.7159   0.01289   0.00866  -0.0153   0.0071   1.0000
  14.500   1.7272   0.01306   0.00882  -0.0150   0.0070   1.0000
  14.625   1.7382   0.01324   0.00900  -0.0147   0.0068   1.0000
  14.750   1.7491   0.01342   0.00919  -0.0144   0.0066   1.0000
  14.875   1.7598   0.01362   0.00938  -0.0141   0.0065   1.0000
  15.000   1.7704   0.01381   0.00957  -0.0137   0.0062   1.0000
  15.125   1.7810   0.01401   0.00976  -0.0134   0.0060   1.0000
  15.250   1.7915   0.01420   0.00995  -0.0130   0.0057   1.0000
  15.375   1.8020   0.01438   0.01014  -0.0126   0.0056   1.0000
  15.500   1.8125   0.01456   0.01032  -0.0123   0.0056   1.0000
  15.625   1.8228   0.01474   0.01050  -0.0119   0.0056   1.0000
  15.750   1.8329   0.01493   0.01069  -0.0115   0.0055   1.0000
  15.875   1.8429   0.01512   0.01089  -0.0110   0.0055   1.0000
  16.000   1.8525   0.01533   0.01110  -0.0106   0.0054   1.0000
  16.125   1.8618   0.01553   0.01131  -0.0100   0.0054   1.0000
  16.250   1.8705   0.01576   0.01153  -0.0094   0.0053   1.0000
  16.375   1.8785   0.01598   0.01177  -0.0087   0.0052   1.0000
  16.500   1.8850   0.01622   0.01201  -0.0076   0.0051   1.0000
  16.625   1.8908   0.01647   0.01227  -0.0065   0.0050   1.0000
  16.750   1.8965   0.01675   0.01255  -0.0054   0.0049   1.0000
  16.875   1.9026   0.01702   0.01283  -0.0044   0.0048   1.0000
  17.000   1.9081   0.01733   0.01314  -0.0033   0.0047   1.0000
  17.125   1.9141   0.01763   0.01345  -0.0024   0.0045   1.0000
  17.250   1.9196   0.01796   0.01379  -0.0015   0.0044   1.0000
  17.375   1.9254   0.01829   0.01413  -0.0006   0.0043   1.0000
  17.500   1.9309   0.01864   0.01449   0.0003   0.0042   1.0000
  17.625   1.9365   0.01901   0.01487   0.0011   0.0041   1.0000
  17.750   1.9419   0.01938   0.01525   0.0019   0.0041   1.0000
  17.875   1.9476   0.01977   0.01565   0.0026   0.0041   1.0000
  18.000   1.9529   0.02019   0.01608   0.0033   0.0041   1.0000
  18.125   1.9581   0.02062   0.01653   0.0040   0.0041   1.0000
  18.250   1.9629   0.02109   0.01701   0.0047   0.0041   1.0000
  18.375   1.9676   0.02159   0.01752   0.0054   0.0041   1.0000
  18.500   1.9724   0.02210   0.01805   0.0060   0.0041   1.0000
  18.625   1.9764   0.02268   0.01864   0.0066   0.0041   1.0000
  18.750   1.9803   0.02327   0.01925   0.0071   0.0040   1.0000
  18.875   1.9841   0.02390   0.01989   0.0077   0.0040   1.0000
  19.000   1.9874   0.02460   0.02060   0.0082   0.0040   1.0000
  19.125   1.9906   0.02533   0.02135   0.0086   0.0040   1.0000
  19.250   1.9934   0.02611   0.02215   0.0090   0.0039   1.0000
  19.375   1.9957   0.02694   0.02299   0.0094   0.0039   1.0000
  19.500   1.9975   0.02785   0.02393   0.0097   0.0039   1.0000
  19.625   1.9985   0.02887   0.02496   0.0099   0.0038   1.0000
  19.750   1.9995   0.02993   0.02604   0.0101   0.0038   1.0000
  19.875   1.9997   0.03109   0.02722   0.0103   0.0037   1.0000
  20.000   1.9999   0.03227   0.02843   0.0104   0.0037   1.0000
  20.125   1.9981   0.03366   0.02985   0.0104   0.0036   1.0000
  20.250   1.9968   0.03507   0.03128   0.0103   0.0036   1.0000
  20.375   1.9954   0.03652   0.03275   0.0102   0.0036   1.0000
  20.500   1.9925   0.03817   0.03444   0.0100   0.0035   1.0000
  20.625   1.9886   0.03997   0.03627   0.0097   0.0034   1.0000
  20.750   1.9848   0.04177   0.03810   0.0093   0.0034   1.0000
  20.875   1.9789   0.04386   0.04022   0.0089   0.0034   1.0000
  21.000   1.9732   0.04597   0.04237   0.0083   0.0033   1.0000
  21.125   1.9662   0.04829   0.04472   0.0077   0.0033   1.0000
  21.250   1.9593   0.05063   0.04710   0.0070   0.0032   1.0000
  21.375   1.9506   0.05319   0.04970   0.0062   0.0032   1.0000
  21.500   1.9413   0.05584   0.05240   0.0054   0.0032   1.0000
  21.625   1.9305   0.05873   0.05533   0.0045   0.0031   1.0000
  21.750   1.9182   0.06187   0.05852   0.0034   0.0031   1.0000
  21.875   1.9054   0.06511   0.06181   0.0023   0.0031   1.0000
  22.000   1.8903   0.06865   0.06540   0.0010   0.0031   1.0000
  22.125   1.8740   0.07239   0.06919  -0.0004   0.0031   1.0000
  22.250   1.8579   0.07615   0.07301  -0.0018   0.0031   1.0000
  22.375   1.8399   0.08022   0.07714  -0.0033   0.0031   1.0000
  22.500   1.8219   0.08428   0.08125  -0.0049   0.0031   1.0000
  22.625   1.8030   0.08847   0.08550  -0.0066   0.0031   1.0000
  22.750   1.7898   0.09189   0.08896  -0.0079   0.0031   1.0000
  22.875   1.7717   0.09611   0.09324  -0.0097   0.0031   1.0000
  23.000   1.7517   0.10065   0.09783  -0.0117   0.0031   1.0000
  23.125   1.7303   0.10534   0.10259  -0.0137   0.0031   1.0000
  23.250   1.7203   0.10837   0.10565  -0.0150   0.0031   1.0000
  23.375   1.6999   0.11308   0.11042  -0.0172   0.0031   1.0000
  23.500   1.6816   0.11754   0.11493  -0.0194   0.0031   1.0000
  23.625   1.6722   0.12059   0.11802  -0.0209   0.0031   1.0000
  23.750   1.6535   0.12510   0.12258  -0.0231   0.0031   1.0000
  23.875   1.6448   0.12806   0.12557  -0.0246   0.0031   1.0000
  24.000   1.6375   0.13082   0.12836  -0.0260   0.0030   1.0000
  24.125   1.6190   0.13551   0.13311  -0.0286   0.0030   1.0000
  24.250   1.6138   0.13798   0.13560  -0.0299   0.0030   1.0000
  24.375   1.5954   0.14277   0.14045  -0.0327   0.0030   1.0000
  24.500   1.5911   0.14514   0.14283  -0.0340   0.0030   1.0000
  24.625   1.5860   0.14762   0.14534  -0.0355   0.0030   1.0000
  24.750   1.5686   0.15226   0.15004  -0.0383   0.0029   1.0000
  24.875   1.5641   0.15469   0.15248  -0.0398   0.0029   1.0000
  25.000   1.5606   0.15696   0.15478  -0.0412   0.0029   1.0000
  25.125   1.5446   0.16157   0.15944  -0.0442   0.0029   1.0000
  25.250   1.5422   0.16369   0.16157  -0.0456   0.0029   1.0000
  25.375   1.5398   0.16582   0.16372  -0.0470   0.0029   1.0000
  25.500   1.5241   0.17051   0.16846  -0.0502   0.0029   1.0000
  25.625   1.5225   0.17254   0.17051  -0.0516   0.0029   1.0000
  25.750   1.5208   0.17458   0.17257  -0.0531   0.0029   1.0000
  25.875   1.5184   0.17676   0.17477  -0.0546   0.0029   1.0000
  26.000   1.5040   0.18132   0.17938  -0.0578   0.0029   1.0000
  26.125   1.5027   0.18326   0.18134  -0.0593   0.0029   1.0000
  26.250   1.5013   0.18524   0.18333  -0.0608   0.0029   1.0000
  26.375   1.4990   0.18740   0.18551  -0.0624   0.0029   1.0000
  26.500   1.4851   0.19198   0.19014  -0.0658   0.0029   1.0000
  26.625   1.4844   0.19387   0.19205  -0.0673   0.0029   1.0000
  26.750   1.4836   0.19579   0.19398  -0.0688   0.0029   1.0000
  26.875   1.4823   0.19783   0.19604  -0.0705   0.0029   1.0000
  27.000   1.4684   0.20259   0.20085  -0.0741   0.0028   1.0000
  27.125   1.4680   0.20445   0.20273  -0.0756   0.0028   1.0000
  27.250   1.4680   0.20623   0.20452  -0.0771   0.0028   1.0000
  27.375   1.4672   0.20820   0.20650  -0.0787   0.0028   1.0000
  27.500   1.4528   0.21326   0.21161  -0.0827   0.0028   1.0000
  27.625   1.4529   0.21503   0.21340  -0.0842   0.0028   1.0000
  27.750   1.4533   0.21677   0.21515  -0.0857   0.0028   1.0000
  27.875   1.4531   0.21861   0.21701  -0.0873   0.0028   1.0000
  28.000   1.4515   0.22083   0.21924  -0.0892   0.0028   1.0000
  28.125   1.4385   0.22571   0.22417  -0.0931   0.0028   1.0000
  28.250   1.4391   0.22739   0.22587  -0.0947   0.0028   1.0000
  28.375   1.4395   0.22914   0.22763  -0.0963   0.0028   1.0000
  28.500   1.4387   0.23119   0.22969  -0.0981   0.0027   1.0000
  28.750   1.4254   0.23816   0.23673  -0.1039   0.0027   1.0000
  28.875   1.4260   0.23986   0.23843  -0.1055   0.0027   1.0000
  29.000   1.4259   0.24170   0.24029  -0.1073   0.0027   1.0000
  29.125   1.4244   0.24389   0.24250  -0.1093   0.0027   1.0000
  29.250   1.4116   0.24894   0.24760  -0.1134   0.0027   1.0000
  29.375   1.4119   0.25072   0.24939  -0.1151   0.0026   1.0000
  29.500   1.4121   0.25253   0.25121  -0.1168   0.0026   1.0000
  29.625   1.4113   0.25458   0.25327  -0.1188   0.0025   1.0000
  29.875   1.3977   0.26203   0.26079  -0.1251   0.0025   1.0000
  30.000   1.3985   0.26371   0.26248  -0.1267   0.0025   1.0000
