  
       XFOIL         Version 6.99
  
 Calculated polar for: x z                                             
  
 1 1 Reynolds number fixed          Mach number fixed         
  
 xtrf =   1.000 (top)        1.000 (bottom)  
 Mach =   0.000     Re =    19.900 e 6     Ncrit =   9.000
  
   alpha    CL        CD       CDp       CM     Top_Xtr  Bot_Xtr
  ------ -------- --------- --------- -------- -------- --------
  10.000   1.2546   0.00941   0.00459  -0.0369   0.0212   0.6021
  10.125   1.2664   0.00949   0.00467  -0.0366   0.0210   0.6039
  10.250   1.2771   0.00961   0.00478  -0.0361   0.0202   0.6055
  10.375   1.2882   0.00971   0.00488  -0.0357   0.0197   0.6070
  10.500   1.2994   0.00980   0.00497  -0.0352   0.0193   0.6084
  10.625   1.3106   0.00989   0.00506  -0.0348   0.0190   0.6096
  10.750   1.3215   0.00998   0.00515  -0.0344   0.0186   0.6109
  10.875   1.3323   0.01008   0.00525  -0.0339   0.0183   0.6120
  11.000   1.3431   0.01016   0.00533  -0.0334   0.0183   0.6130
  11.125   1.3522   0.01024   0.00541  -0.0325   0.0182   0.6140
  11.250   1.3594   0.01031   0.00548  -0.0313   0.0181   0.6146
  11.375   1.3673   0.01040   0.00557  -0.0302   0.0182   0.6150
  11.500   1.3749   0.01050   0.00567  -0.0291   0.0180   0.6155
  11.625   1.3830   0.01060   0.00578  -0.0281   0.0181   0.6158
  11.750   1.3903   0.01073   0.00590  -0.0270   0.0177   0.6161
  11.875   1.3981   0.01085   0.00602  -0.0260   0.0176   0.6176
  12.000   1.4048   0.01100   0.00617  -0.0248   0.0171   0.6198
  12.125   1.4117   0.01115   0.00633  -0.0236   0.0167   0.6218
  12.250   1.4214   0.01124   0.00642  -0.0230   0.0172   0.6239
  12.375   1.4282   0.01140   0.00659  -0.0219   0.0167   0.6255
  12.500   1.4348   0.01159   0.00677  -0.0208   0.0158   0.6270
  12.625   1.4430   0.01172   0.00691  -0.0199   0.0159   0.6285
  12.750   1.4506   0.01189   0.00707  -0.0190   0.0153   0.6297
  12.875   1.4587   0.01204   0.00723  -0.0182   0.0150   0.6308
  13.000   1.4668   0.01220   0.00738  -0.0174   0.0150   0.6317
  13.125   1.4750   0.01235   0.00755  -0.0166   0.0149   0.6325
  13.250   1.4835   0.01251   0.00771  -0.0158   0.0149   0.6329
  13.375   1.4916   0.01268   0.00787  -0.0151   0.0148   0.6334
  13.500   1.4993   0.01285   0.00805  -0.0142   0.0148   0.6345
  13.625   1.5073   0.01303   0.00823  -0.0134   0.0147   0.6374
  13.750   1.5155   0.01321   0.00841  -0.0127   0.0146   0.6399
  13.875   1.5227   0.01341   0.00863  -0.0118   0.0143   0.6422
  14.000   1.5284   0.01367   0.00888  -0.0107   0.0138   0.6445
  14.125   1.5357   0.01388   0.00910  -0.0099   0.0136   0.6463
  14.250   1.5440   0.01406   0.00929  -0.0092   0.0137   0.6483
  14.375   1.5496   0.01435   0.00957  -0.0082   0.0129   0.6492
  14.500   1.5563   0.01459   0.00982  -0.0073   0.0128   0.6503
  14.625   1.5634   0.01483   0.01006  -0.0065   0.0124   0.6511
  14.750   1.5709   0.01506   0.01029  -0.0057   0.0121   0.6552
  14.875   1.5789   0.01527   0.01051  -0.0051   0.0121   0.6585
  15.000   1.5852   0.01553   0.01078  -0.0042   0.0120   0.6608
  15.125   1.5919   0.01579   0.01105  -0.0034   0.0120   0.6637
  15.250   1.5993   0.01603   0.01130  -0.0027   0.0120   0.6655
  15.375   1.6065   0.01630   0.01157  -0.0020   0.0118   0.6670
  15.500   1.6123   0.01661   0.01189  -0.0011   0.0115   0.6680
  15.625   1.6145   0.01708   0.01236   0.0002   0.0108   0.6720
  15.750   1.6231   0.01728   0.01257   0.0007   0.0111   0.6760
  15.875   1.6292   0.01761   0.01291   0.0015   0.0108   0.6798
  16.000   1.6334   0.01802   0.01332   0.0025   0.0104   0.6824
  16.125   1.6380   0.01842   0.01373   0.0034   0.0098   0.6846
  16.250   1.6446   0.01873   0.01406   0.0041   0.0097   0.6895
  16.375   1.6510   0.01906   0.01440   0.0048   0.0096   0.6966
  16.500   1.6548   0.01950   0.01486   0.0057   0.0093   0.7005
  16.625   1.6610   0.01985   0.01522   0.0064   0.0094   0.7058
  16.750   1.6662   0.02022   0.01563   0.0071   0.0092   0.7240
  16.875   1.6727   0.02054   0.01598   0.0078   0.0094   0.7385
  17.000   1.6750   0.02104   0.01654   0.0088   0.0090   0.7675
  17.125   1.6793   0.02125   0.01692   0.0099   0.0092   0.8498
  17.250   1.6786   0.02194   0.01766   0.0112   0.0085   0.8726
  17.375   1.6798   0.02252   0.01830   0.0123   0.0079   0.8952
  17.500   1.7087   0.02291   0.01888   0.0083   0.0079   0.9798
  17.625   1.7277   0.02348   0.01947   0.0060   0.0075   0.9955
  17.750   1.7295   0.02415   0.02015   0.0069   0.0073   0.9962
  17.875   1.7380   0.02459   0.02059   0.0069   0.0075   0.9968
  18.000   1.7453   0.02520   0.02121   0.0069   0.0073   0.9972
  18.125   1.7540   0.02586   0.02188   0.0065   0.0072   0.9977
  18.250   1.7620   0.02661   0.02264   0.0061   0.0070   0.9981
  18.375   1.7710   0.02735   0.02338   0.0054   0.0068   0.9984
  18.500   1.7808   0.02810   0.02413   0.0046   0.0068   0.9986
  18.625   1.7928   0.02890   0.02493   0.0034   0.0066   0.9989
  18.750   1.8008   0.02990   0.02594   0.0025   0.0062   0.9991
  18.875   1.8144   0.03044   0.02649   0.0014   0.0065   0.9993
  19.000   1.8239   0.03132   0.02737   0.0004   0.0062   0.9995
  19.125   1.8332   0.03242   0.02848  -0.0009   0.0057   0.9996
  19.250   1.8430   0.03304   0.02910  -0.0014   0.0060   0.9997
  19.375   1.8516   0.03402   0.03009  -0.0024   0.0057   0.9998
  19.500   1.8610   0.03498   0.03106  -0.0034   0.0056   0.9999
  19.625   1.8699   0.03580   0.03189  -0.0042   0.0056   1.0000
  19.750   1.8726   0.03677   0.03288  -0.0041   0.0056   1.0000
  19.875   1.8763   0.03763   0.03374  -0.0039   0.0056   1.0000
  20.000   1.8783   0.03863   0.03476  -0.0037   0.0055   1.0000
  20.125   1.8820   0.03952   0.03567  -0.0036   0.0056   1.0000
  20.250   1.8839   0.04054   0.03669  -0.0035   0.0054   1.0000
  20.375   1.8853   0.04165   0.03783  -0.0034   0.0054   1.0000
  20.500   1.8868   0.04273   0.03891  -0.0032   0.0053   1.0000
  20.625   1.8907   0.04355   0.03974  -0.0031   0.0054   1.0000
  20.750   1.8901   0.04488   0.04109  -0.0031   0.0053   1.0000
  20.875   1.8933   0.04579   0.04202  -0.0030   0.0053   1.0000
  21.000   1.8946   0.04691   0.04316  -0.0030   0.0053   1.0000
  21.125   1.8912   0.04854   0.04481  -0.0029   0.0050   1.0000
  21.250   1.8914   0.04976   0.04604  -0.0028   0.0049   1.0000
  21.375   1.8895   0.05128   0.04758  -0.0029   0.0048   1.0000
  21.500   1.8941   0.05208   0.04840  -0.0029   0.0049   1.0000
  21.625   1.8921   0.05353   0.04987  -0.0029   0.0047   1.0000
  21.750   1.8906   0.05502   0.05137  -0.0030   0.0047   1.0000
  21.875   1.8925   0.05609   0.05245  -0.0030   0.0047   1.0000
  22.000   1.8918   0.05746   0.05384  -0.0030   0.0045   1.0000
  22.125   1.8904   0.05897   0.05538  -0.0032   0.0046   1.0000
  22.250   1.8890   0.06044   0.05687  -0.0033   0.0043   1.0000
  22.375   1.8912   0.06151   0.05795  -0.0034   0.0043   1.0000
  22.500   1.8883   0.06322   0.05968  -0.0036   0.0043   1.0000
  22.625   1.8874   0.06465   0.06113  -0.0038   0.0042   1.0000
  22.750   1.8882   0.06586   0.06235  -0.0039   0.0042   1.0000
  22.875   1.8845   0.06765   0.06417  -0.0042   0.0042   1.0000
  23.000   1.8839   0.06907   0.06561  -0.0044   0.0042   1.0000
  23.125   1.8842   0.07037   0.06693  -0.0045   0.0042   1.0000
  23.250   1.8833   0.07185   0.06843  -0.0048   0.0042   1.0000
  23.375   1.8792   0.07376   0.07036  -0.0052   0.0042   1.0000
  23.500   1.8796   0.07508   0.07170  -0.0054   0.0042   1.0000
  23.625   1.8790   0.07650   0.07314  -0.0056   0.0041   1.0000
  23.750   1.8732   0.07864   0.07531  -0.0061   0.0041   1.0000
  23.875   1.8717   0.08017   0.07686  -0.0064   0.0041   1.0000
  24.000   1.8714   0.08157   0.07828  -0.0067   0.0041   1.0000
  24.125   1.8648   0.08381   0.08055  -0.0073   0.0041   1.0000
  24.250   1.8618   0.08557   0.08233  -0.0077   0.0040   1.0000
  24.375   1.8617   0.08698   0.08376  -0.0080   0.0041   1.0000
  24.500   1.8547   0.08931   0.08612  -0.0086   0.0040   1.0000
  24.625   1.8496   0.09139   0.08823  -0.0092   0.0040   1.0000
  24.750   1.8496   0.09279   0.08964  -0.0096   0.0040   1.0000
  24.875   1.8463   0.09465   0.09153  -0.0102   0.0040   1.0000
  25.000   1.8365   0.09735   0.09426  -0.0110   0.0039   1.0000
  25.125   1.8366   0.09872   0.09565  -0.0114   0.0040   1.0000
  25.250   1.8236   0.10190   0.09888  -0.0125   0.0039   1.0000
  25.375   1.8251   0.10312   0.10012  -0.0129   0.0040   1.0000
  25.500   1.8177   0.10553   0.10255  -0.0137   0.0038   1.0000
  25.625   1.8088   0.10825   0.10530  -0.0147   0.0039   1.0000
  25.750   1.8057   0.11010   0.10717  -0.0154   0.0039   1.0000
  25.875   1.7887   0.11393   0.11106  -0.0170   0.0037   1.0000
  26.000   1.7899   0.11522   0.11237  -0.0175   0.0038   1.0000
  26.125   1.7850   0.11731   0.11448  -0.0183   0.0038   1.0000
  26.250   1.7630   0.12186   0.11908  -0.0203   0.0036   1.0000
  26.375   1.7515   0.12501   0.12228  -0.0218   0.0036   1.0000
  26.500   1.7522   0.12636   0.12365  -0.0224   0.0037   1.0000
  26.625   1.7464   0.12870   0.12602  -0.0235   0.0038   1.0000
  26.750   1.7324   0.13223   0.12959  -0.0253   0.0036   1.0000
  26.875   1.7174   0.13597   0.13338  -0.0272   0.0036   1.0000
  27.000   1.7012   0.13996   0.13742  -0.0294   0.0035   1.0000
  27.125   1.7016   0.14130   0.13878  -0.0301   0.0037   1.0000
  27.250   1.6818   0.14577   0.14331  -0.0326   0.0036   1.0000
  27.375   1.6683   0.14934   0.14692  -0.0347   0.0036   1.0000
  27.500   1.6580   0.15241   0.15003  -0.0365   0.0036   1.0000
  27.625   1.6371   0.15724   0.15493  -0.0394   0.0035   1.0000
  27.750   1.6344   0.15917   0.15688  -0.0407   0.0035   1.0000
  27.875   1.6122   0.16433   0.16210  -0.0440   0.0034   1.0000
  28.000   1.6094   0.16630   0.16410  -0.0454   0.0035   1.0000
  28.125   1.5901   0.17120   0.16905  -0.0487   0.0035   1.0000
  28.250   1.5808   0.17425   0.17214  -0.0508   0.0033   1.0000
  28.375   1.5589   0.17965   0.17760  -0.0547   0.0032   1.0000
  28.500   1.5195   0.18219   0.18019  -0.0517   0.0032   1.0000
  28.625   1.5161   0.18442   0.18245  -0.0535   0.0032   1.0000
  28.750   1.4972   0.18963   0.18773  -0.0575   0.0032   1.0000
  28.875   1.4984   0.19104   0.18916  -0.0587   0.0034   1.0000
  29.000   1.4953   0.19326   0.19140  -0.0605   0.0035   1.0000
  29.125   1.4508   0.20399   0.20226  -0.0688   0.0033   1.0000
  29.250   1.4486   0.20635   0.20464  -0.0710   0.0033   1.0000
  29.375   1.4684   0.21172   0.21003  -0.0808   0.0033   1.0000
  29.500   1.4452   0.21875   0.21715  -0.0867   0.0032   1.0000
  29.625   1.4417   0.22140   0.21981  -0.0891   0.0031   1.0000
  29.750   1.4426   0.22300   0.22142  -0.0907   0.0032   1.0000
  30.000   1.4196   0.23215   0.23067  -0.0986   0.0029   1.0000
